<?xml version="1.0" encoding="UTF-8"?>
<!DOCTYPE plans SYSTEM "http://www.matsim.org/files/dtd/plans_v4.dtd">
<plans>
  <person id="1556">
    <plan selected="yes">
      <act end_time="00:58:33" type="h" link="65"/>
      <leg mode="car">
        <route>5 4 3 2</route>
      </leg>
      <act type="h" link="21"/>
    </plan>
    <plan selected="no">
      <act end_time="00:58:33" type="h" link="65"/>
      <leg mode="car">
        <route>5 8 7 2</route>
      </leg>
      <act type="h" link="21"/>
    </plan>
  </person>
  <person id="1273">
    <plan selected="no">
      <act end_time="00:37:24" type="h" link="65"/>
      <leg mode="car">
        <route>5 4 3 2</route>
      </leg>
      <act type="h" link="21"/>
    </plan>
    <plan selected="yes">
      <act end_time="00:37:24" type="h" link="65"/>
      <leg mode="car">
        <route>5 8 7 2</route>
      </leg>
      <act type="h" link="21"/>
    </plan>
  </person>
  <person id="990">
    <plan selected="yes">
      <act end_time="00:16:06" type="h" link="65"/>
      <leg mode="car">
        <route>5 4 3 2</route>
      </leg>
      <act type="h" link="21"/>
    </plan>
    <plan selected="no">
      <act end_time="00:16:06" type="h" link="65"/>
      <leg mode="car">
        <route>5 8 7 2</route>
      </leg>
      <act type="h" link="21"/>
    </plan>
  </person>
  <person id="707">
    <plan selected="no">
      <act end_time="00:54:57" type="h" link="12"/>
      <leg mode="car">
        <route>2 3 4 5</route>
      </leg>
      <act type="h" link="56"/>
    </plan>
    <plan selected="yes">
      <act end_time="00:54:57" type="h" link="12"/>
      <leg mode="car">
        <route>2 7 8 5</route>
      </leg>
      <act type="h" link="56"/>
    </plan>
  </person>
  <person id="424">
    <plan selected="yes">
      <act end_time="00:33:39" type="h" link="12"/>
      <leg mode="car">
        <route>2 3 4 5</route>
      </leg>
      <act type="h" link="56"/>
    </plan>
    <plan selected="no">
      <act end_time="00:33:39" type="h" link="12"/>
      <leg mode="car">
        <route>2 7 8 5</route>
      </leg>
      <act type="h" link="56"/>
    </plan>
  </person>
  <person id="141">
    <plan selected="no">
      <act end_time="00:12:30" type="h" link="12"/>
      <leg mode="car">
        <route>2 3 4 5</route>
      </leg>
      <act type="h" link="56"/>
    </plan>
    <plan selected="yes">
      <act end_time="00:12:30" type="h" link="12"/>
      <leg mode="car">
        <route>2 7 8 5</route>
      </leg>
      <act type="h" link="56"/>
    </plan>
  </person>
  <person id="1415">
    <plan selected="no">
      <act end_time="00:48:03" type="h" link="65"/>
      <leg mode="car">
        <route>5 4 3 2</route>
      </leg>
      <act type="h" link="21"/>
    </plan>
    <plan selected="yes">
      <act end_time="00:48:03" type="h" link="65"/>
      <leg mode="car">
        <route>5 8 7 2</route>
      </leg>
      <act type="h" link="21"/>
    </plan>
  </person>
  <person id="1132">
    <plan selected="yes">
      <act end_time="00:26:45" type="h" link="65"/>
      <leg mode="car">
        <route>5 4 3 2</route>
      </leg>
      <act type="h" link="21"/>
    </plan>
    <plan selected="no">
      <act end_time="00:26:45" type="h" link="65"/>
      <leg mode="car">
        <route>5 8 7 2</route>
      </leg>
      <act type="h" link="21"/>
    </plan>
  </person>
  <person id="849">
    <plan selected="no">
      <act end_time="00:05:36" type="h" link="65"/>
      <leg mode="car">
        <route>5 4 3 2</route>
      </leg>
      <act type="h" link="21"/>
    </plan>
    <plan selected="yes">
      <act end_time="00:05:36" type="h" link="65"/>
      <leg mode="car">
        <route>5 8 7 2</route>
      </leg>
      <act type="h" link="21"/>
    </plan>
  </person>
  <person id="566">
    <plan selected="yes">
      <act end_time="00:44:18" type="h" link="12"/>
      <leg mode="car">
        <route>2 3 4 5</route>
      </leg>
      <act type="h" link="56"/>
    </plan>
    <plan selected="no">
      <act end_time="00:44:18" type="h" link="12"/>
      <leg mode="car">
        <route>2 7 8 5</route>
      </leg>
      <act type="h" link="56"/>
    </plan>
  </person>
  <person id="283">
    <plan selected="no">
      <act end_time="00:23:09" type="h" link="12"/>
      <leg mode="car">
        <route>2 3 4 5</route>
      </leg>
      <act type="h" link="56"/>
    </plan>
    <plan selected="yes">
      <act end_time="00:23:09" type="h" link="12"/>
      <leg mode="car">
        <route>2 7 8 5</route>
      </leg>
      <act type="h" link="56"/>
    </plan>
  </person>
  <person id="1557">
    <plan selected="no">
      <act end_time="00:58:42" type="h" link="65"/>
      <leg mode="car">
        <route>5 4 3 2</route>
      </leg>
      <act type="h" link="21"/>
    </plan>
    <plan selected="yes">
      <act end_time="00:58:42" type="h" link="65"/>
      <leg mode="car">
        <route>5 8 7 2</route>
      </leg>
      <act type="h" link="21"/>
    </plan>
  </person>
  <person id="1274">
    <plan selected="yes">
      <act end_time="00:37:24" type="h" link="65"/>
      <leg mode="car">
        <route>5 4 3 2</route>
      </leg>
      <act type="h" link="21"/>
    </plan>
    <plan selected="no">
      <act end_time="00:37:24" type="h" link="65"/>
      <leg mode="car">
        <route>5 8 7 2</route>
      </leg>
      <act type="h" link="21"/>
    </plan>
  </person>
  <person id="991">
    <plan selected="no">
      <act end_time="00:16:15" type="h" link="65"/>
      <leg mode="car">
        <route>5 4 3 2</route>
      </leg>
      <act type="h" link="21"/>
    </plan>
    <plan selected="yes">
      <act end_time="00:16:15" type="h" link="65"/>
      <leg mode="car">
        <route>5 8 7 2</route>
      </leg>
      <act type="h" link="21"/>
    </plan>
  </person>
  <person id="708">
    <plan selected="yes">
      <act end_time="00:54:57" type="h" link="12"/>
      <leg mode="car">
        <route>2 3 4 5</route>
      </leg>
      <act type="h" link="56"/>
    </plan>
    <plan selected="no">
      <act end_time="00:54:57" type="h" link="12"/>
      <leg mode="car">
        <route>2 7 8 5</route>
      </leg>
      <act type="h" link="56"/>
    </plan>
  </person>
  <person id="425">
    <plan selected="no">
      <act end_time="00:33:48" type="h" link="12"/>
      <leg mode="car">
        <route>2 3 4 5</route>
      </leg>
      <act type="h" link="56"/>
    </plan>
    <plan selected="yes">
      <act end_time="00:33:48" type="h" link="12"/>
      <leg mode="car">
        <route>2 7 8 5</route>
      </leg>
      <act type="h" link="56"/>
    </plan>
  </person>
  <person id="142">
    <plan selected="yes">
      <act end_time="00:12:30" type="h" link="12"/>
      <leg mode="car">
        <route>2 3 4 5</route>
      </leg>
      <act type="h" link="56"/>
    </plan>
    <plan selected="no">
      <act end_time="00:12:30" type="h" link="12"/>
      <leg mode="car">
        <route>2 7 8 5</route>
      </leg>
      <act type="h" link="56"/>
    </plan>
  </person>
  <person id="1416">
    <plan selected="yes">
      <act end_time="00:48:03" type="h" link="65"/>
      <leg mode="car">
        <route>5 4 3 2</route>
      </leg>
      <act type="h" link="21"/>
    </plan>
    <plan selected="no">
      <act end_time="00:48:03" type="h" link="65"/>
      <leg mode="car">
        <route>5 8 7 2</route>
      </leg>
      <act type="h" link="21"/>
    </plan>
  </person>
  <person id="1133">
    <plan selected="no">
      <act end_time="00:26:54" type="h" link="65"/>
      <leg mode="car">
        <route>5 4 3 2</route>
      </leg>
      <act type="h" link="21"/>
    </plan>
    <plan selected="yes">
      <act end_time="00:26:54" type="h" link="65"/>
      <leg mode="car">
        <route>5 8 7 2</route>
      </leg>
      <act type="h" link="21"/>
    </plan>
  </person>
  <person id="850">
    <plan selected="yes">
      <act end_time="00:05:36" type="h" link="65"/>
      <leg mode="car">
        <route>5 4 3 2</route>
      </leg>
      <act type="h" link="21"/>
    </plan>
    <plan selected="no">
      <act end_time="00:05:36" type="h" link="65"/>
      <leg mode="car">
        <route>5 8 7 2</route>
      </leg>
      <act type="h" link="21"/>
    </plan>
  </person>
  <person id="567">
    <plan selected="no">
      <act end_time="00:44:27" type="h" link="12"/>
      <leg mode="car">
        <route>2 3 4 5</route>
      </leg>
      <act type="h" link="56"/>
    </plan>
    <plan selected="yes">
      <act end_time="00:44:27" type="h" link="12"/>
      <leg mode="car">
        <route>2 7 8 5</route>
      </leg>
      <act type="h" link="56"/>
    </plan>
  </person>
  <person id="284">
    <plan selected="yes">
      <act end_time="00:23:09" type="h" link="12"/>
      <leg mode="car">
        <route>2 3 4 5</route>
      </leg>
      <act type="h" link="56"/>
    </plan>
    <plan selected="no">
      <act end_time="00:23:09" type="h" link="12"/>
      <leg mode="car">
        <route>2 7 8 5</route>
      </leg>
      <act type="h" link="56"/>
    </plan>
  </person>
  <person id="1">
    <plan selected="no">
      <act end_time="00:02:00" type="h" link="12"/>
      <leg mode="car">
        <route>2 3 4 5</route>
      </leg>
      <act type="h" link="56"/>
    </plan>
    <plan selected="yes">
      <act end_time="00:02:00" type="h" link="12"/>
      <leg mode="car">
        <route>2 7 8 5</route>
      </leg>
      <act type="h" link="56"/>
    </plan>
  </person>
  <person id="1558">
    <plan selected="yes">
      <act end_time="00:58:42" type="h" link="65"/>
      <leg mode="car">
        <route>5 4 3 2</route>
      </leg>
      <act type="h" link="21"/>
    </plan>
    <plan selected="no">
      <act end_time="00:58:42" type="h" link="65"/>
      <leg mode="car">
        <route>5 8 7 2</route>
      </leg>
      <act type="h" link="21"/>
    </plan>
  </person>
  <person id="1275">
    <plan selected="no">
      <act end_time="00:37:33" type="h" link="65"/>
      <leg mode="car">
        <route>5 4 3 2</route>
      </leg>
      <act type="h" link="21"/>
    </plan>
    <plan selected="yes">
      <act end_time="00:37:33" type="h" link="65"/>
      <leg mode="car">
        <route>5 8 7 2</route>
      </leg>
      <act type="h" link="21"/>
    </plan>
  </person>
  <person id="992">
    <plan selected="yes">
      <act end_time="00:16:15" type="h" link="65"/>
      <leg mode="car">
        <route>5 4 3 2</route>
      </leg>
      <act type="h" link="21"/>
    </plan>
    <plan selected="no">
      <act end_time="00:16:15" type="h" link="65"/>
      <leg mode="car">
        <route>5 8 7 2</route>
      </leg>
      <act type="h" link="21"/>
    </plan>
  </person>
  <person id="709">
    <plan selected="no">
      <act end_time="00:55:06" type="h" link="12"/>
      <leg mode="car">
        <route>2 3 4 5</route>
      </leg>
      <act type="h" link="56"/>
    </plan>
    <plan selected="yes">
      <act end_time="00:55:06" type="h" link="12"/>
      <leg mode="car">
        <route>2 7 8 5</route>
      </leg>
      <act type="h" link="56"/>
    </plan>
  </person>
  <person id="426">
    <plan selected="yes">
      <act end_time="00:33:48" type="h" link="12"/>
      <leg mode="car">
        <route>2 3 4 5</route>
      </leg>
      <act type="h" link="56"/>
    </plan>
    <plan selected="no">
      <act end_time="00:33:48" type="h" link="12"/>
      <leg mode="car">
        <route>2 7 8 5</route>
      </leg>
      <act type="h" link="56"/>
    </plan>
  </person>
  <person id="143">
    <plan selected="no">
      <act end_time="00:12:39" type="h" link="12"/>
      <leg mode="car">
        <route>2 3 4 5</route>
      </leg>
      <act type="h" link="56"/>
    </plan>
    <plan selected="yes">
      <act end_time="00:12:39" type="h" link="12"/>
      <leg mode="car">
        <route>2 7 8 5</route>
      </leg>
      <act type="h" link="56"/>
    </plan>
  </person>
  <person id="1417">
    <plan selected="no">
      <act end_time="00:48:12" type="h" link="65"/>
      <leg mode="car">
        <route>5 4 3 2</route>
      </leg>
      <act type="h" link="21"/>
    </plan>
    <plan selected="yes">
      <act end_time="00:48:12" type="h" link="65"/>
      <leg mode="car">
        <route>5 8 7 2</route>
      </leg>
      <act type="h" link="21"/>
    </plan>
  </person>
  <person id="1134">
    <plan selected="yes">
      <act end_time="00:26:54" type="h" link="65"/>
      <leg mode="car">
        <route>5 4 3 2</route>
      </leg>
      <act type="h" link="21"/>
    </plan>
    <plan selected="no">
      <act end_time="00:26:54" type="h" link="65"/>
      <leg mode="car">
        <route>5 8 7 2</route>
      </leg>
      <act type="h" link="21"/>
    </plan>
  </person>
  <person id="851">
    <plan selected="no">
      <act end_time="00:05:45" type="h" link="65"/>
      <leg mode="car">
        <route>5 4 3 2</route>
      </leg>
      <act type="h" link="21"/>
    </plan>
    <plan selected="yes">
      <act end_time="00:05:45" type="h" link="65"/>
      <leg mode="car">
        <route>5 8 7 2</route>
      </leg>
      <act type="h" link="21"/>
    </plan>
  </person>
  <person id="568">
    <plan selected="yes">
      <act end_time="00:44:27" type="h" link="12"/>
      <leg mode="car">
        <route>2 3 4 5</route>
      </leg>
      <act type="h" link="56"/>
    </plan>
    <plan selected="no">
      <act end_time="00:44:27" type="h" link="12"/>
      <leg mode="car">
        <route>2 7 8 5</route>
      </leg>
      <act type="h" link="56"/>
    </plan>
  </person>
  <person id="285">
    <plan selected="no">
      <act end_time="00:23:18" type="h" link="12"/>
      <leg mode="car">
        <route>2 3 4 5</route>
      </leg>
      <act type="h" link="56"/>
    </plan>
    <plan selected="yes">
      <act end_time="00:23:18" type="h" link="12"/>
      <leg mode="car">
        <route>2 7 8 5</route>
      </leg>
      <act type="h" link="56"/>
    </plan>
  </person>
  <person id="2">
    <plan selected="yes">
      <act end_time="00:02:00" type="h" link="12"/>
      <leg mode="car">
        <route>2 3 4 5</route>
      </leg>
      <act type="h" link="56"/>
    </plan>
    <plan selected="no">
      <act end_time="00:02:00" type="h" link="12"/>
      <leg mode="car">
        <route>2 7 8 5</route>
      </leg>
      <act type="h" link="56"/>
    </plan>
  </person>
  <person id="1559">
    <plan selected="no">
      <act end_time="00:58:51" type="h" link="65"/>
      <leg mode="car">
        <route>5 4 3 2</route>
      </leg>
      <act type="h" link="21"/>
    </plan>
    <plan selected="yes">
      <act end_time="00:58:51" type="h" link="65"/>
      <leg mode="car">
        <route>5 8 7 2</route>
      </leg>
      <act type="h" link="21"/>
    </plan>
  </person>
  <person id="1276">
    <plan selected="yes">
      <act end_time="00:37:33" type="h" link="65"/>
      <leg mode="car">
        <route>5 4 3 2</route>
      </leg>
      <act type="h" link="21"/>
    </plan>
    <plan selected="no">
      <act end_time="00:37:33" type="h" link="65"/>
      <leg mode="car">
        <route>5 8 7 2</route>
      </leg>
      <act type="h" link="21"/>
    </plan>
  </person>
  <person id="993">
    <plan selected="no">
      <act end_time="00:16:24" type="h" link="65"/>
      <leg mode="car">
        <route>5 4 3 2</route>
      </leg>
      <act type="h" link="21"/>
    </plan>
    <plan selected="yes">
      <act end_time="00:16:24" type="h" link="65"/>
      <leg mode="car">
        <route>5 8 7 2</route>
      </leg>
      <act type="h" link="21"/>
    </plan>
  </person>
  <person id="710">
    <plan selected="yes">
      <act end_time="00:55:06" type="h" link="12"/>
      <leg mode="car">
        <route>2 3 4 5</route>
      </leg>
      <act type="h" link="56"/>
    </plan>
    <plan selected="no">
      <act end_time="00:55:06" type="h" link="12"/>
      <leg mode="car">
        <route>2 7 8 5</route>
      </leg>
      <act type="h" link="56"/>
    </plan>
  </person>
  <person id="427">
    <plan selected="no">
      <act end_time="00:33:57" type="h" link="12"/>
      <leg mode="car">
        <route>2 3 4 5</route>
      </leg>
      <act type="h" link="56"/>
    </plan>
    <plan selected="yes">
      <act end_time="00:33:57" type="h" link="12"/>
      <leg mode="car">
        <route>2 7 8 5</route>
      </leg>
      <act type="h" link="56"/>
    </plan>
  </person>
  <person id="144">
    <plan selected="yes">
      <act end_time="00:12:39" type="h" link="12"/>
      <leg mode="car">
        <route>2 3 4 5</route>
      </leg>
      <act type="h" link="56"/>
    </plan>
    <plan selected="no">
      <act end_time="00:12:39" type="h" link="12"/>
      <leg mode="car">
        <route>2 7 8 5</route>
      </leg>
      <act type="h" link="56"/>
    </plan>
  </person>
  <person id="1418">
    <plan selected="yes">
      <act end_time="00:48:12" type="h" link="65"/>
      <leg mode="car">
        <route>5 4 3 2</route>
      </leg>
      <act type="h" link="21"/>
    </plan>
    <plan selected="no">
      <act end_time="00:48:12" type="h" link="65"/>
      <leg mode="car">
        <route>5 8 7 2</route>
      </leg>
      <act type="h" link="21"/>
    </plan>
  </person>
  <person id="1135">
    <plan selected="no">
      <act end_time="00:27:03" type="h" link="65"/>
      <leg mode="car">
        <route>5 4 3 2</route>
      </leg>
      <act type="h" link="21"/>
    </plan>
    <plan selected="yes">
      <act end_time="00:27:03" type="h" link="65"/>
      <leg mode="car">
        <route>5 8 7 2</route>
      </leg>
      <act type="h" link="21"/>
    </plan>
  </person>
  <person id="852">
    <plan selected="yes">
      <act end_time="00:05:45" type="h" link="65"/>
      <leg mode="car">
        <route>5 4 3 2</route>
      </leg>
      <act type="h" link="21"/>
    </plan>
    <plan selected="no">
      <act end_time="00:05:45" type="h" link="65"/>
      <leg mode="car">
        <route>5 8 7 2</route>
      </leg>
      <act type="h" link="21"/>
    </plan>
  </person>
  <person id="569">
    <plan selected="no">
      <act end_time="00:44:36" type="h" link="12"/>
      <leg mode="car">
        <route>2 3 4 5</route>
      </leg>
      <act type="h" link="56"/>
    </plan>
    <plan selected="yes">
      <act end_time="00:44:36" type="h" link="12"/>
      <leg mode="car">
        <route>2 7 8 5</route>
      </leg>
      <act type="h" link="56"/>
    </plan>
  </person>
  <person id="286">
    <plan selected="yes">
      <act end_time="00:23:18" type="h" link="12"/>
      <leg mode="car">
        <route>2 3 4 5</route>
      </leg>
      <act type="h" link="56"/>
    </plan>
    <plan selected="no">
      <act end_time="00:23:18" type="h" link="12"/>
      <leg mode="car">
        <route>2 7 8 5</route>
      </leg>
      <act type="h" link="56"/>
    </plan>
  </person>
  <person id="3">
    <plan selected="no">
      <act end_time="00:02:09" type="h" link="12"/>
      <leg mode="car">
        <route>2 3 4 5</route>
      </leg>
      <act type="h" link="56"/>
    </plan>
    <plan selected="yes">
      <act end_time="00:02:09" type="h" link="12"/>
      <leg mode="car">
        <route>2 7 8 5</route>
      </leg>
      <act type="h" link="56"/>
    </plan>
  </person>
  <person id="1560">
    <plan selected="yes">
      <act end_time="00:58:51" type="h" link="65"/>
      <leg mode="car">
        <route>5 4 3 2</route>
      </leg>
      <act type="h" link="21"/>
    </plan>
    <plan selected="no">
      <act end_time="00:58:51" type="h" link="65"/>
      <leg mode="car">
        <route>5 8 7 2</route>
      </leg>
      <act type="h" link="21"/>
    </plan>
  </person>
  <person id="1277">
    <plan selected="no">
      <act end_time="00:37:42" type="h" link="65"/>
      <leg mode="car">
        <route>5 4 3 2</route>
      </leg>
      <act type="h" link="21"/>
    </plan>
    <plan selected="yes">
      <act end_time="00:37:42" type="h" link="65"/>
      <leg mode="car">
        <route>5 8 7 2</route>
      </leg>
      <act type="h" link="21"/>
    </plan>
  </person>
  <person id="994">
    <plan selected="yes">
      <act end_time="00:16:24" type="h" link="65"/>
      <leg mode="car">
        <route>5 4 3 2</route>
      </leg>
      <act type="h" link="21"/>
    </plan>
    <plan selected="no">
      <act end_time="00:16:24" type="h" link="65"/>
      <leg mode="car">
        <route>5 8 7 2</route>
      </leg>
      <act type="h" link="21"/>
    </plan>
  </person>
  <person id="711">
    <plan selected="no">
      <act end_time="00:55:15" type="h" link="12"/>
      <leg mode="car">
        <route>2 3 4 5</route>
      </leg>
      <act type="h" link="56"/>
    </plan>
    <plan selected="yes">
      <act end_time="00:55:15" type="h" link="12"/>
      <leg mode="car">
        <route>2 7 8 5</route>
      </leg>
      <act type="h" link="56"/>
    </plan>
  </person>
  <person id="428">
    <plan selected="yes">
      <act end_time="00:33:57" type="h" link="12"/>
      <leg mode="car">
        <route>2 3 4 5</route>
      </leg>
      <act type="h" link="56"/>
    </plan>
    <plan selected="no">
      <act end_time="00:33:57" type="h" link="12"/>
      <leg mode="car">
        <route>2 7 8 5</route>
      </leg>
      <act type="h" link="56"/>
    </plan>
  </person>
  <person id="145">
    <plan selected="no">
      <act end_time="00:12:48" type="h" link="12"/>
      <leg mode="car">
        <route>2 3 4 5</route>
      </leg>
      <act type="h" link="56"/>
    </plan>
    <plan selected="yes">
      <act end_time="00:12:48" type="h" link="12"/>
      <leg mode="car">
        <route>2 7 8 5</route>
      </leg>
      <act type="h" link="56"/>
    </plan>
  </person>
  <person id="1419">
    <plan selected="no">
      <act end_time="00:48:21" type="h" link="65"/>
      <leg mode="car">
        <route>5 4 3 2</route>
      </leg>
      <act type="h" link="21"/>
    </plan>
    <plan selected="yes">
      <act end_time="00:48:21" type="h" link="65"/>
      <leg mode="car">
        <route>5 8 7 2</route>
      </leg>
      <act type="h" link="21"/>
    </plan>
  </person>
  <person id="1136">
    <plan selected="yes">
      <act end_time="00:27:03" type="h" link="65"/>
      <leg mode="car">
        <route>5 4 3 2</route>
      </leg>
      <act type="h" link="21"/>
    </plan>
    <plan selected="no">
      <act end_time="00:27:03" type="h" link="65"/>
      <leg mode="car">
        <route>5 8 7 2</route>
      </leg>
      <act type="h" link="21"/>
    </plan>
  </person>
  <person id="853">
    <plan selected="no">
      <act end_time="00:05:54" type="h" link="65"/>
      <leg mode="car">
        <route>5 4 3 2</route>
      </leg>
      <act type="h" link="21"/>
    </plan>
    <plan selected="yes">
      <act end_time="00:05:54" type="h" link="65"/>
      <leg mode="car">
        <route>5 8 7 2</route>
      </leg>
      <act type="h" link="21"/>
    </plan>
  </person>
  <person id="570">
    <plan selected="yes">
      <act end_time="00:44:36" type="h" link="12"/>
      <leg mode="car">
        <route>2 3 4 5</route>
      </leg>
      <act type="h" link="56"/>
    </plan>
    <plan selected="no">
      <act end_time="00:44:36" type="h" link="12"/>
      <leg mode="car">
        <route>2 7 8 5</route>
      </leg>
      <act type="h" link="56"/>
    </plan>
  </person>
  <person id="287">
    <plan selected="no">
      <act end_time="00:23:27" type="h" link="12"/>
      <leg mode="car">
        <route>2 3 4 5</route>
      </leg>
      <act type="h" link="56"/>
    </plan>
    <plan selected="yes">
      <act end_time="00:23:27" type="h" link="12"/>
      <leg mode="car">
        <route>2 7 8 5</route>
      </leg>
      <act type="h" link="56"/>
    </plan>
  </person>
  <person id="4">
    <plan selected="yes">
      <act end_time="00:02:09" type="h" link="12"/>
      <leg mode="car">
        <route>2 3 4 5</route>
      </leg>
      <act type="h" link="56"/>
    </plan>
    <plan selected="no">
      <act end_time="00:02:09" type="h" link="12"/>
      <leg mode="car">
        <route>2 7 8 5</route>
      </leg>
      <act type="h" link="56"/>
    </plan>
  </person>
  <person id="1561">
    <plan selected="no">
      <act end_time="00:59:00" type="h" link="65"/>
      <leg mode="car">
        <route>5 4 3 2</route>
      </leg>
      <act type="h" link="21"/>
    </plan>
    <plan selected="yes">
      <act end_time="00:59:00" type="h" link="65"/>
      <leg mode="car">
        <route>5 8 7 2</route>
      </leg>
      <act type="h" link="21"/>
    </plan>
  </person>
  <person id="1278">
    <plan selected="yes">
      <act end_time="00:37:42" type="h" link="65"/>
      <leg mode="car">
        <route>5 4 3 2</route>
      </leg>
      <act type="h" link="21"/>
    </plan>
    <plan selected="no">
      <act end_time="00:37:42" type="h" link="65"/>
      <leg mode="car">
        <route>5 8 7 2</route>
      </leg>
      <act type="h" link="21"/>
    </plan>
  </person>
  <person id="995">
    <plan selected="no">
      <act end_time="00:16:33" type="h" link="65"/>
      <leg mode="car">
        <route>5 4 3 2</route>
      </leg>
      <act type="h" link="21"/>
    </plan>
    <plan selected="yes">
      <act end_time="00:16:33" type="h" link="65"/>
      <leg mode="car">
        <route>5 8 7 2</route>
      </leg>
      <act type="h" link="21"/>
    </plan>
  </person>
  <person id="712">
    <plan selected="yes">
      <act end_time="00:55:15" type="h" link="12"/>
      <leg mode="car">
        <route>2 3 4 5</route>
      </leg>
      <act type="h" link="56"/>
    </plan>
    <plan selected="no">
      <act end_time="00:55:15" type="h" link="12"/>
      <leg mode="car">
        <route>2 7 8 5</route>
      </leg>
      <act type="h" link="56"/>
    </plan>
  </person>
  <person id="429">
    <plan selected="no">
      <act end_time="00:34:06" type="h" link="12"/>
      <leg mode="car">
        <route>2 3 4 5</route>
      </leg>
      <act type="h" link="56"/>
    </plan>
    <plan selected="yes">
      <act end_time="00:34:06" type="h" link="12"/>
      <leg mode="car">
        <route>2 7 8 5</route>
      </leg>
      <act type="h" link="56"/>
    </plan>
  </person>
  <person id="146">
    <plan selected="yes">
      <act end_time="00:12:48" type="h" link="12"/>
      <leg mode="car">
        <route>2 3 4 5</route>
      </leg>
      <act type="h" link="56"/>
    </plan>
    <plan selected="no">
      <act end_time="00:12:48" type="h" link="12"/>
      <leg mode="car">
        <route>2 7 8 5</route>
      </leg>
      <act type="h" link="56"/>
    </plan>
  </person>
  <person id="1420">
    <plan selected="yes">
      <act end_time="00:48:21" type="h" link="65"/>
      <leg mode="car">
        <route>5 4 3 2</route>
      </leg>
      <act type="h" link="21"/>
    </plan>
    <plan selected="no">
      <act end_time="00:48:21" type="h" link="65"/>
      <leg mode="car">
        <route>5 8 7 2</route>
      </leg>
      <act type="h" link="21"/>
    </plan>
  </person>
  <person id="1137">
    <plan selected="no">
      <act end_time="00:27:12" type="h" link="65"/>
      <leg mode="car">
        <route>5 4 3 2</route>
      </leg>
      <act type="h" link="21"/>
    </plan>
    <plan selected="yes">
      <act end_time="00:27:12" type="h" link="65"/>
      <leg mode="car">
        <route>5 8 7 2</route>
      </leg>
      <act type="h" link="21"/>
    </plan>
  </person>
  <person id="854">
    <plan selected="yes">
      <act end_time="00:05:54" type="h" link="65"/>
      <leg mode="car">
        <route>5 4 3 2</route>
      </leg>
      <act type="h" link="21"/>
    </plan>
    <plan selected="no">
      <act end_time="00:05:54" type="h" link="65"/>
      <leg mode="car">
        <route>5 8 7 2</route>
      </leg>
      <act type="h" link="21"/>
    </plan>
  </person>
  <person id="571">
    <plan selected="no">
      <act end_time="00:44:45" type="h" link="12"/>
      <leg mode="car">
        <route>2 3 4 5</route>
      </leg>
      <act type="h" link="56"/>
    </plan>
    <plan selected="yes">
      <act end_time="00:44:45" type="h" link="12"/>
      <leg mode="car">
        <route>2 7 8 5</route>
      </leg>
      <act type="h" link="56"/>
    </plan>
  </person>
  <person id="288">
    <plan selected="yes">
      <act end_time="00:23:27" type="h" link="12"/>
      <leg mode="car">
        <route>2 3 4 5</route>
      </leg>
      <act type="h" link="56"/>
    </plan>
    <plan selected="no">
      <act end_time="00:23:27" type="h" link="12"/>
      <leg mode="car">
        <route>2 7 8 5</route>
      </leg>
      <act type="h" link="56"/>
    </plan>
  </person>
  <person id="5">
    <plan selected="no">
      <act end_time="00:02:18" type="h" link="12"/>
      <leg mode="car">
        <route>2 3 4 5</route>
      </leg>
      <act type="h" link="56"/>
    </plan>
    <plan selected="yes">
      <act end_time="00:02:18" type="h" link="12"/>
      <leg mode="car">
        <route>2 7 8 5</route>
      </leg>
      <act type="h" link="56"/>
    </plan>
  </person>
  <person id="1562">
    <plan selected="yes">
      <act end_time="00:59:00" type="h" link="65"/>
      <leg mode="car">
        <route>5 4 3 2</route>
      </leg>
      <act type="h" link="21"/>
    </plan>
    <plan selected="no">
      <act end_time="00:59:00" type="h" link="65"/>
      <leg mode="car">
        <route>5 8 7 2</route>
      </leg>
      <act type="h" link="21"/>
    </plan>
  </person>
  <person id="1279">
    <plan selected="no">
      <act end_time="00:37:51" type="h" link="65"/>
      <leg mode="car">
        <route>5 4 3 2</route>
      </leg>
      <act type="h" link="21"/>
    </plan>
    <plan selected="yes">
      <act end_time="00:37:51" type="h" link="65"/>
      <leg mode="car">
        <route>5 8 7 2</route>
      </leg>
      <act type="h" link="21"/>
    </plan>
  </person>